Circuit: * C:\Users\trist\Documents\School_Files\University\Year_2\Tri_1\EEEN203\Lab\Lab_3\Low pass filter no load.asc


Date: Wed Apr 28 01:11:36 2021
Total elapsed time: 0.032 seconds.

tnom = 27
temp = 27
method = trap
totiter = 0
traniter = 0
tranpoints = 0
accept = 0
rejected = 0
matrix size = 3
fillins = 0
solver = Normal

