Circuit: * C:\Users\trist\Documents\School_Files\University\Year_2\Tri_1\EEEN203\Lab\Lab_3\Voltage follower.asc

Direct Newton iteration for .op point succeeded.

Date: Wed Apr 28 01:11:24 2021
Total elapsed time: 0.038 seconds.

tnom = 27
temp = 27
method = trap
totiter = 4
traniter = 0
tranpoints = 0
accept = 0
rejected = 0
matrix size = 9
fillins = 0
solver = Normal
Matrix Compiler1:      19 opcodes
Matrix Compiler2: 695 bytes object code size
