Circuit: * C:\Users\trist\Documents\School_Files\University\Year_2\Tri_1\EEEN203\Lab\Lab_1\Fig-2.asc

.OP point found by inspection.

Date: Fri Mar 12 18:27:59 2021
Total elapsed time: 0.047 seconds.

tnom = 27
temp = 27
method = modified trap
totiter = 2062
traniter = 2062
tranpoints = 1032
accept = 1030
rejected = 2
matrix size = 3
fillins = 0
solver = Normal
Matrix Compiler1:       5 opcodes  0.1/[0.1]/0.1
Matrix Compiler2: 163 bytes object code size  0.1/0.1/[0.1]

