Circuit: * C:\Users\trist\Documents\School_Files\University\Year_2\Tri_1\EEEN203\Lab\Lab_2\Draft1.asc


Date: Wed Apr 21 11:10:55 2021
Total elapsed time: 0.052 seconds.

tnom = 27
temp = 27
method = trap
totiter = 0
traniter = 0
tranpoints = 0
accept = 0
rejected = 0
matrix size = 4
fillins = 0
solver = Normal

